/*--------------------------------*- C++ -*----------------------------------*\
| =========                 |                                                 |
| \\      /  F ield         | foam-extend: Open Source CFD                    |
|  \\    /   O peration     | Version:     4.0                                |
|   \\  /    A nd           | Web:         http://www.foam-extend.org         |
|    \\/     M anipulation  |                                                 |
\*---------------------------------------------------------------------------*/
FoamFile
{
    version     2.0;
    format      ascii;
    class       polyBoundaryMesh;
    location    "constant/polyMesh";
    object      boundary;
}
// * * * * * * * * * * * * * * * * * * * * * * * * * * * * * * * * * * * * * //

6
(
    top
    {
        type            patch;
        nFaces          80;
        startFace       1192;
    }
    left
    {
        type            patch;
        nFaces          8;
        startFace       1272;
    }
    right
    {
        type            patch;
        nFaces          8;
        startFace       1280;
    }
    bottom
    {
        type            patch;
        nFaces          80;
        startFace       1288;
    }
    front
    {
        type            empty;
        nFaces          640;
        startFace       1368;
    }
    back
    {
        type            empty;
        nFaces          640;
        startFace       2008;
    }
)


// ************************************************************************* //
