/*--------------------------------*- C++ -*----------------------------------*\
| =========                 |                                                 |
| \\      /  F ield         | foam-extend: Open Source CFD                    |
|  \\    /   O peration     | Version:     4.0                                |
|   \\  /    A nd           | Web:         http://www.foam-extend.org         |
|    \\/     M anipulation  |                                                 |
\*---------------------------------------------------------------------------*/
FoamFile
{
    version     2.0;
    format      ascii;
    class       polyBoundaryMesh;
    location    "constant/polyMesh";
    object      boundary;
}
// * * * * * * * * * * * * * * * * * * * * * * * * * * * * * * * * * * * * * //

6
(
    top
    {
        type            patch;
        nFaces          160;
        startFace       4944;
    }
    left
    {
        type            patch;
        nFaces          16;
        startFace       5104;
    }
    right
    {
        type            patch;
        nFaces          16;
        startFace       5120;
    }
    bottom
    {
        type            patch;
        nFaces          160;
        startFace       5136;
    }
    front
    {
        type            empty;
        nFaces          2560;
        startFace       5296;
    }
    back
    {
        type            empty;
        nFaces          2560;
        startFace       7856;
    }
)


// ************************************************************************* //
